data_image0
_chemical_formula_structural       B6OC4OC4OC4OC4OC4OC4OC4OC4OC4OC4OC4OC10H24
_chemical_formula_sum              "B6 O12 C54 H24"
_cell_length_a       30.0827
_cell_length_b       30.0827
_cell_length_c       30
_cell_angle_alpha    90
_cell_angle_beta     90
_cell_angle_gamma    120

_space_group_name_H-M_alt    "P 1"
_space_group_IT_number       1

loop_
  _space_group_symop_operation_xyz
  'x, y, z'

loop_
  _atom_site_type_symbol
  _atom_site_label
  _atom_site_symmetry_multiplicity
  _atom_site_fract_x
  _atom_site_fract_y
  _atom_site_fract_z
  _atom_site_occupancy
  B   B1        1.0  0.10691  0.55077  0.05767  1.0000
  B   B2        1.0  0.43850  0.55077  0.05767  1.0000
  B   B3        1.0  0.43850  0.88236  0.05767  1.0000
  B   B4        1.0  0.88236  0.43850  0.05767  1.0000
  B   B5        1.0  0.55077  0.43850  0.05767  1.0000
  B   B6        1.0  0.55077  0.10691  0.05767  1.0000
  O   O1        1.0  0.60409  0.13630  0.05767  1.0000
  C   C1        1.0  0.46810  0.02124  0.05767  1.0000
  C   C2        1.0  0.61453  0.18787  0.05767  1.0000
  C   C3        1.0  0.66113  0.23313  0.05767  1.0000
  C   C4        1.0  0.66091  0.27995  0.05767  1.0000
  O   O2        1.0  0.85297  0.46243  0.05767  1.0000
  C   C5        1.0  0.96803  0.44150  0.05767  1.0000
  C   C6        1.0  0.80140  0.42129  0.05767  1.0000
  C   C7        1.0  0.75614  0.42264  0.05767  1.0000
  C   C8        1.0  0.70932  0.37559  0.05767  1.0000
  O   O3        1.0  0.52685  0.38518  0.05767  1.0000
  C   C9        1.0  0.54777  0.52117  0.05767  1.0000
  C   C10       1.0  0.56798  0.37474  0.05767  1.0000
  C   C11       1.0  0.56663  0.32814  0.05767  1.0000
  C   C12       1.0  0.61368  0.32836  0.05767  1.0000
  O   O4        1.0  0.38518  0.85297  0.05767  1.0000
  C   C13       1.0  0.52117  0.96803  0.05767  1.0000
  C   C14       1.0  0.37474  0.80140  0.05767  1.0000
  C   C15       1.0  0.32814  0.75614  0.05767  1.0000
  C   C16       1.0  0.32836  0.70932  0.05767  1.0000
  O   O5        1.0  0.13630  0.52685  0.05767  1.0000
  C   C17       1.0  0.02124  0.54777  0.05767  1.0000
  C   C18       1.0  0.18787  0.56798  0.05767  1.0000
  C   C19       1.0  0.23313  0.56663  0.05767  1.0000
  C   C20       1.0  0.27995  0.61368  0.05767  1.0000
  O   O6        1.0  0.46243  0.60409  0.05767  1.0000
  C   C21       1.0  0.44150  0.46810  0.05767  1.0000
  C   C22       1.0  0.42129  0.61453  0.05767  1.0000
  C   C23       1.0  0.42264  0.66113  0.05767  1.0000
  C   C24       1.0  0.37559  0.66091  0.05767  1.0000
  O   O7        1.0  0.13630  0.60409  0.05767  1.0000
  C   C25       1.0  0.02124  0.46810  0.05767  1.0000
  C   C26       1.0  0.18787  0.61453  0.05767  1.0000
  C   C27       1.0  0.23313  0.66113  0.05767  1.0000
  C   C28       1.0  0.27995  0.66091  0.05767  1.0000
  O   O8        1.0  0.46243  0.85297  0.05767  1.0000
  C   C29       1.0  0.44150  0.96803  0.05767  1.0000
  C   C30       1.0  0.42129  0.80140  0.05767  1.0000
  C   C31       1.0  0.42264  0.75614  0.05767  1.0000
  C   C32       1.0  0.37559  0.70932  0.05767  1.0000
  O   O9        1.0  0.38518  0.52685  0.05767  1.0000
  C   C33       1.0  0.52117  0.54777  0.05767  1.0000
  C   C34       1.0  0.37474  0.56798  0.05767  1.0000
  C   C35       1.0  0.32814  0.56663  0.05767  1.0000
  C   C36       1.0  0.32836  0.61368  0.05767  1.0000
  O   O10       1.0  0.85297  0.38518  0.05767  1.0000
  C   C37       1.0  0.96803  0.52117  0.05767  1.0000
  C   C38       1.0  0.80140  0.37474  0.05767  1.0000
  C   C39       1.0  0.75614  0.32814  0.05767  1.0000
  C   C40       1.0  0.70932  0.32836  0.05767  1.0000
  O   O11       1.0  0.52685  0.13630  0.05767  1.0000
  C   C41       1.0  0.54777  0.02124  0.05767  1.0000
  C   C42       1.0  0.56798  0.18787  0.05767  1.0000
  C   C43       1.0  0.56663  0.23313  0.05767  1.0000
  C   C44       1.0  0.61368  0.27995  0.05767  1.0000
  O   O12       1.0  0.60409  0.46243  0.05767  1.0000
  C   C45       1.0  0.46810  0.44150  0.05767  1.0000
  C   C46       1.0  0.61453  0.42129  0.05767  1.0000
  C   C47       1.0  0.66113  0.42264  0.05767  1.0000
  C   C48       1.0  0.66091  0.37559  0.05767  1.0000
  C   C49       1.0  0.93978  0.46721  0.05767  1.0000
  C   C50       1.0  0.52206  0.46721  0.05767  1.0000
  C   C51       1.0  0.52206  0.04949  0.05767  1.0000
  C   C52       1.0  0.04949  0.52206  0.05767  1.0000
  C   C53       1.0  0.46721  0.52206  0.05767  1.0000
  C   C54       1.0  0.46721  0.93978  0.05767  1.0000
  H   H1        1.0  0.44645  0.04191  0.05767  1.0000
  H   H2        1.0  0.69806  0.23366  0.05767  1.0000
  H   H3        1.0  0.94736  0.39918  0.05767  1.0000
  H   H4        1.0  0.75561  0.45903  0.05767  1.0000
  H   H5        1.0  0.59009  0.54282  0.05767  1.0000
  H   H6        1.0  0.53024  0.29121  0.05767  1.0000
  H   H7        1.0  0.54282  0.94736  0.05767  1.0000
  H   H8        1.0  0.29121  0.75561  0.05767  1.0000
  H   H9        1.0  0.04191  0.59009  0.05767  1.0000
  H   H10       1.0  0.23366  0.53024  0.05767  1.0000
  H   H11       1.0  0.39918  0.44645  0.05767  1.0000
  H   H12       1.0  0.45903  0.69806  0.05767  1.0000
  H   H13       1.0  0.04191  0.44645  0.05767  1.0000
  H   H14       1.0  0.23366  0.69806  0.05767  1.0000
  H   H15       1.0  0.39918  0.94736  0.05767  1.0000
  H   H16       1.0  0.45904  0.75561  0.05767  1.0000
  H   H17       1.0  0.54282  0.59009  0.05767  1.0000
  H   H18       1.0  0.29121  0.53024  0.05767  1.0000
  H   H19       1.0  0.94736  0.54282  0.05767  1.0000
  H   H20       1.0  0.75561  0.29121  0.05767  1.0000
  H   H21       1.0  0.59009  0.04191  0.05767  1.0000
  H   H22       1.0  0.53024  0.23366  0.05767  1.0000
  H   H23       1.0  0.44645  0.39918  0.05767  1.0000
  H   H24       1.0  0.69806  0.45903  0.05767  1.0000
