data_image0
_chemical_formula_structural       C2H2C4H2C4H2C4H2C4H2C4H2C4H2C4H2C4H2C4H2C4H2C4H2C6H2C4H2C4H2C4H2C4H2C4H2C4H2C4H2C4H2C4H2C4H2C4H2C6H2C6H2C4H2C4H2C4H2C4H2C4H2C4H2C4H2C4H2C4H2C4H2C4H2C6H2C4H2
_chemical_formula_sum              "C162 H78"
_cell_length_a       59.7471
_cell_length_b       59.7475
_cell_length_c       30
_cell_angle_alpha    90
_cell_angle_beta     90
_cell_angle_gamma    120

_space_group_name_H-M_alt    "P 1"
_space_group_IT_number       1

loop_
  _space_group_symop_operation_xyz
  'x, y, z'

loop_
  _atom_site_type_symbol
  _atom_site_label
  _atom_site_symmetry_multiplicity
  _atom_site_fract_x
  _atom_site_fract_y
  _atom_site_fract_z
  _atom_site_occupancy
  C   C1        1.0  0.53499  0.58655  1.00000  1.0000
  C   C2        1.0  0.48786  0.53942  1.00000  1.0000
  H   H1        1.0  0.55344  0.60500  1.00000  1.0000
  H   H2        1.0  0.46941  0.52097  1.00000  1.0000
  C   C3        1.0  0.53551  0.56328  1.00000  1.0000
  C   C4        1.0  0.51113  0.53890  1.00000  1.0000
  C   C5        1.0  0.51164  0.51563  1.00000  1.0000
  C   C6        1.0  0.55878  0.56277  0.00000  1.0000
  H   H3        1.0  0.49320  0.49719  1.00000  1.0000
  H   H4        1.0  0.57722  0.58121  0.00000  1.0000
  C   C7        1.0  0.51173  0.58705  1.00000  1.0000
  C   C8        1.0  0.48736  0.56268  1.00000  1.0000
  C   C9        1.0  0.46407  0.56321  1.00000  1.0000
  C   C10       1.0  0.51120  0.61034  1.00000  1.0000
  H   H5        1.0  0.44563  0.54476  1.00000  1.0000
  H   H6        1.0  0.52965  0.62878  0.00000  1.0000
  C   C11       1.0  0.53491  0.51512  0.00000  1.0000
  C   C12       1.0  0.55929  0.53950  0.00000  1.0000
  C   C13       1.0  0.58256  0.53898  0.00000  1.0000
  C   C14       1.0  0.53543  0.49185  1.00000  1.0000
  H   H7        1.0  0.60101  0.55743  0.00000  1.0000
  H   H8        1.0  0.51698  0.47340  0.00000  1.0000
  C   C15       1.0  0.46359  0.58646  1.00000  1.0000
  C   C16       1.0  0.48796  0.61082  1.00000  1.0000
  C   C17       1.0  0.48740  0.63412  1.00000  1.0000
  C   C18       1.0  0.44029  0.58701  1.00000  1.0000
  H   H9        1.0  0.50585  0.65257  0.00000  1.0000
  H   H10       1.0  0.42184  0.56856  1.00000  1.0000
  C   C19       1.0  0.58306  0.51572  0.00000  1.0000
  C   C20       1.0  0.55869  0.49134  1.00000  1.0000
  C   C21       1.0  0.55922  0.46806  0.00000  1.0000
  C   C22       1.0  0.60635  0.51519  0.00000  1.0000
  H   H11       1.0  0.54077  0.44961  0.00000  1.0000
  H   H12       1.0  0.62480  0.53363  0.00000  1.0000
  C   C23       1.0  0.46418  0.63458  1.00000  1.0000
  C   C24       1.0  0.43983  0.61023  1.00000  1.0000
  C   C25       1.0  0.41650  0.61082  1.00000  1.0000
  C   C26       1.0  0.46359  0.65791  0.00000  1.0000
  H   H13       1.0  0.39805  0.59238  1.00000  1.0000
  H   H14       1.0  0.48204  0.67637  0.00000  1.0000
  C   C27       1.0  0.58246  0.46757  0.00000  1.0000
  C   C28       1.0  0.60683  0.49194  0.00000  1.0000
  C   C29       1.0  0.63013  0.49139  0.00000  1.0000
  C   C30       1.0  0.58302  0.44428  0.00000  1.0000
  H   H15       1.0  0.64858  0.50984  0.00000  1.0000
  H   H16       1.0  0.56457  0.42583  0.00000  1.0000
  C   C31       1.0  0.41608  0.63401  1.00000  1.0000
  C   C32       1.0  0.44041  0.65833  0.00000  1.0000
  C   C33       1.0  0.43978  0.68173  0.00000  1.0000
  C   C34       1.0  0.39268  0.63464  1.00000  1.0000
  H   H17       1.0  0.45821  0.70018  0.00000  1.0000
  H   H18       1.0  0.37423  0.61620  1.00000  1.0000
  C   C35       1.0  0.63059  0.46817  0.00000  1.0000
  C   C36       1.0  0.60624  0.44382  0.00000  1.0000
  C   C37       1.0  0.60683  0.42049  0.00000  1.0000
  C   C38       1.0  0.65392  0.46758  1.00000  1.0000
  H   H19       1.0  0.58839  0.40203  0.00000  1.0000
  H   H20       1.0  0.67237  0.48602  1.00000  1.0000
  C   C39       1.0  0.41664  0.68202  0.00000  1.0000
  C   C40       1.0  0.39239  0.65777  1.00000  1.0000
  C   C41       1.0  0.36898  0.65869  1.00000  1.0000
  C   C42       1.0  0.41572  0.70543  0.00000  1.0000
  H   H21       1.0  0.35034  0.64034  1.00000  1.0000
  H   H22       1.0  0.43407  0.72407  0.00000  1.0000
  C   C43       1.0  0.63001  0.42007  0.00000  1.0000
  C   C44       1.0  0.65434  0.44439  0.00000  1.0000
  C   C45       1.0  0.67774  0.44376  1.00000  1.0000
  C   C46       1.0  0.63065  0.39667  0.00000  1.0000
  H   H23       1.0  0.69619  0.46220  1.00000  1.0000
  H   H24       1.0  0.61221  0.37821  0.00000  1.0000
  C   C47       1.0  0.36864  0.68157  1.00000  1.0000
  C   C48       1.0  0.39284  0.70577  1.00000  1.0000
  C   C49       1.0  0.34416  0.70577  1.00000  1.0000
  C   C50       1.0  0.34416  0.68157  1.00000  1.0000
  C   C51       1.0  0.32093  0.65869  1.00000  1.0000
  C   C52       1.0  0.32093  0.70543  1.00000  1.0000
  H   H25       1.0  0.32123  0.64034  0.00000  1.0000
  H   H26       1.0  0.32123  0.72407  1.00000  1.0000
  C   C53       1.0  0.39284  0.73025  1.00000  1.0000
  C   C54       1.0  0.36864  0.73025  1.00000  1.0000
  C   C55       1.0  0.36898  0.75348  1.00000  1.0000
  C   C56       1.0  0.41572  0.75348  1.00000  1.0000
  H   H27       1.0  0.35034  0.75318  1.00000  1.0000
  H   H28       1.0  0.43407  0.75318  1.00000  1.0000
  C   C57       1.0  0.29660  0.65777  1.00000  1.0000
  C   C58       1.0  0.29660  0.68202  1.00000  1.0000
  C   C59       1.0  0.27317  0.68173  1.00000  1.0000
  C   C60       1.0  0.27317  0.63464  0.00000  1.0000
  H   H29       1.0  0.27319  0.70018  1.00000  1.0000
  H   H30       1.0  0.27319  0.61620  0.00000  1.0000
  C   C61       1.0  0.39239  0.77781  1.00000  1.0000
  C   C62       1.0  0.41664  0.77781  1.00000  1.0000
  C   C63       1.0  0.43978  0.80124  1.00000  1.0000
  C   C64       1.0  0.39268  0.80124  1.00000  1.0000
  H   H31       1.0  0.45821  0.80122  1.00000  1.0000
  H   H32       1.0  0.37423  0.80122  1.00000  1.0000
  C   C65       1.0  0.24914  0.65833  0.00000  1.0000
  C   C66       1.0  0.24914  0.63401  0.00000  1.0000
  C   C67       1.0  0.22554  0.61082  0.00000  1.0000
  C   C68       1.0  0.22554  0.65791  0.00000  1.0000
  H   H33       1.0  0.22555  0.59238  0.00000  1.0000
  H   H34       1.0  0.22555  0.67636  1.00000  1.0000
  C   C69       1.0  0.44041  0.82527  1.00000  1.0000
  C   C70       1.0  0.41608  0.82527  1.00000  1.0000
  C   C71       1.0  0.41650  0.84887  1.00000  1.0000
  C   C72       1.0  0.46359  0.84887  1.00000  1.0000
  H   H35       1.0  0.39805  0.84886  1.00000  1.0000
  H   H36       1.0  0.48203  0.84886  1.00000  1.0000
  C   C73       1.0  0.20163  0.61023  0.00000  1.0000
  C   C74       1.0  0.20163  0.63458  0.00000  1.0000
  C   C75       1.0  0.17794  0.63412  0.00000  1.0000
  C   C76       1.0  0.17794  0.58701  0.00000  1.0000
  H   H37       1.0  0.17795  0.65257  0.00000  1.0000
  H   H38       1.0  0.17795  0.56856  0.00000  1.0000
  C   C77       1.0  0.43983  0.87278  1.00000  1.0000
  C   C78       1.0  0.46418  0.87278  1.00000  1.0000
  C   C79       1.0  0.48740  0.89647  1.00000  1.0000
  C   C80       1.0  0.44029  0.89647  1.00000  1.0000
  H   H39       1.0  0.50585  0.89646  0.00000  1.0000
  H   H40       1.0  0.42184  0.89646  1.00000  1.0000
  C   C81       1.0  0.15409  0.61082  0.00000  1.0000
  C   C82       1.0  0.15409  0.58646  0.00000  1.0000
  C   C83       1.0  0.13036  0.56321  0.00000  1.0000
  C   C84       1.0  0.13036  0.61034  0.00000  1.0000
  H   H41       1.0  0.13036  0.54476  0.00000  1.0000
  H   H42       1.0  0.13036  0.62878  0.00000  1.0000
  C   C85       1.0  0.48796  0.92032  1.00000  1.0000
  C   C86       1.0  0.46359  0.92032  1.00000  1.0000
  C   C87       1.0  0.46407  0.94405  1.00000  1.0000
  C   C88       1.0  0.51120  0.94405  1.00000  1.0000
  H   H43       1.0  0.44563  0.94405  1.00000  1.0000
  H   H44       1.0  0.52965  0.94405  0.00000  1.0000
  C   C89       1.0  0.10654  0.56268  0.00000  1.0000
  C   C90       1.0  0.10654  0.58705  0.00000  1.0000
  C   C91       1.0  0.08278  0.58655  0.00000  1.0000
  C   C92       1.0  0.08278  0.53942  0.00000  1.0000
  H   H45       1.0  0.08278  0.60500  0.00000  1.0000
  H   H46       1.0  0.08278  0.52097  0.00000  1.0000
  C   C93       1.0  0.48736  0.96787  1.00000  1.0000
  C   C94       1.0  0.51173  0.96787  1.00000  1.0000
  C   C95       1.0  0.53499  0.99163  0.00000  1.0000
  C   C96       1.0  0.48786  0.99163  1.00000  1.0000
  H   H47       1.0  0.55344  0.99163  0.00000  1.0000
  H   H48       1.0  0.46941  0.99163  1.00000  1.0000
  C   C97       1.0  0.05899  0.56328  0.00000  1.0000
  C   C98       1.0  0.05899  0.53890  0.00000  1.0000
  C   C99       1.0  0.67803  0.42063  1.00000  1.0000
  C   C100      1.0  0.65378  0.39638  0.00000  1.0000
  C   C101      1.0  0.65470  0.37297  0.00000  1.0000
  C   C102      1.0  0.70144  0.41970  1.00000  1.0000
  H   H49       1.0  0.63635  0.35433  0.00000  1.0000
  H   H50       1.0  0.72008  0.43805  1.00000  1.0000
  C   C103      1.0  0.67758  0.37263  0.00000  1.0000
  C   C104      1.0  0.70178  0.39682  0.00000  1.0000
  C   C105      1.0  0.72626  0.39682  1.00000  1.0000
  C   C106      1.0  0.72626  0.37263  0.00000  1.0000
  C   C107      1.0  0.74949  0.37297  0.00000  1.0000
  C   C108      1.0  0.74949  0.41970  1.00000  1.0000
  H   H51       1.0  0.74919  0.35433  0.00000  1.0000
  H   H52       1.0  0.74919  0.43805  1.00000  1.0000
  C   C109      1.0  0.70178  0.34815  0.00000  1.0000
  C   C110      1.0  0.67758  0.34815  0.00000  1.0000
  C   C111      1.0  0.65470  0.32492  1.00000  1.0000
  C   C112      1.0  0.70144  0.32492  0.00000  1.0000
  H   H53       1.0  0.63635  0.32521  1.00000  1.0000
  H   H54       1.0  0.72008  0.32521  0.00000  1.0000
  C   C113      1.0  0.77382  0.39638  0.00000  1.0000
  C   C114      1.0  0.77382  0.42063  1.00000  1.0000
  C   C115      1.0  0.79725  0.44376  1.00000  1.0000
  C   C116      1.0  0.79725  0.39667  0.00000  1.0000
  H   H55       1.0  0.79723  0.46220  1.00000  1.0000
  H   H56       1.0  0.79723  0.37821  0.00000  1.0000
  C   C117      1.0  0.65378  0.30059  1.00000  1.0000
  C   C118      1.0  0.67803  0.30059  0.00000  1.0000
  C   C119      1.0  0.67774  0.27716  0.00000  1.0000
  C   C120      1.0  0.63065  0.27716  1.00000  1.0000
  H   H57       1.0  0.69619  0.27718  0.00000  1.0000
  H   H58       1.0  0.61221  0.27718  1.00000  1.0000
  C   C121      1.0  0.82128  0.44439  0.00000  1.0000
  C   C122      1.0  0.82128  0.42007  0.00000  1.0000
  C   C123      1.0  0.84488  0.42049  0.00000  1.0000
  C   C124      1.0  0.84488  0.46758  1.00000  1.0000
  H   H59       1.0  0.84487  0.40203  0.00000  1.0000
  H   H60       1.0  0.84487  0.48602  1.00000  1.0000
  C   C125      1.0  0.65434  0.25313  1.00000  1.0000
  C   C126      1.0  0.63002  0.25313  1.00000  1.0000
  C   C127      1.0  0.60683  0.22953  1.00000  1.0000
  C   C128      1.0  0.65392  0.22953  0.00000  1.0000
  H   H61       1.0  0.58839  0.22954  1.00000  1.0000
  H   H62       1.0  0.67237  0.22954  0.00000  1.0000
  C   C129      1.0  0.86879  0.44382  0.00000  1.0000
  C   C130      1.0  0.86879  0.46817  1.00000  1.0000
  C   C131      1.0  0.89248  0.49139  1.00000  1.0000
  C   C132      1.0  0.89248  0.44428  1.00000  1.0000
  H   H63       1.0  0.89247  0.50984  1.00000  1.0000
  H   H64       1.0  0.89247  0.42583  0.00000  1.0000
  C   C133      1.0  0.60624  0.20561  1.00000  1.0000
  C   C134      1.0  0.63059  0.20561  1.00000  1.0000
  C   C135      1.0  0.63013  0.18193  1.00000  1.0000
  C   C136      1.0  0.58302  0.18193  1.00000  1.0000
  H   H65       1.0  0.64858  0.18193  0.00000  1.0000
  H   H66       1.0  0.56457  0.18193  1.00000  1.0000
  C   C137      1.0  0.91633  0.49194  1.00000  1.0000
  C   C138      1.0  0.91633  0.46758  0.00000  1.0000
  C   C139      1.0  0.94006  0.46806  0.00000  1.0000
  C   C140      1.0  0.94006  0.51519  1.00000  1.0000
  H   H67       1.0  0.94006  0.44961  0.00000  1.0000
  H   H68       1.0  0.94006  0.53363  1.00000  1.0000
  C   C141      1.0  0.60683  0.15808  1.00000  1.0000
  C   C142      1.0  0.58247  0.15808  1.00000  1.0000
  C   C143      1.0  0.55922  0.13434  1.00000  1.0000
  C   C144      1.0  0.60635  0.13434  0.00000  1.0000
  H   H69       1.0  0.54077  0.13435  1.00000  1.0000
  H   H70       1.0  0.62480  0.13435  0.00000  1.0000
  C   C145      1.0  0.96388  0.49134  0.00000  1.0000
  C   C146      1.0  0.96388  0.51572  1.00000  1.0000
  C   C147      1.0  0.98764  0.53898  1.00000  1.0000
  C   C148      1.0  0.98764  0.49185  0.00000  1.0000
  H   H71       1.0  0.98764  0.55743  1.00000  1.0000
  H   H72       1.0  0.98764  0.47340  0.00000  1.0000
  C   C149      1.0  0.55869  0.11053  1.00000  1.0000
  C   C150      1.0  0.58306  0.11053  0.00000  1.0000
  C   C151      1.0  0.58256  0.08677  0.00000  1.0000
  C   C152      1.0  0.53543  0.08677  1.00000  1.0000
  H   H73       1.0  0.60101  0.08677  0.00000  1.0000
  H   H74       1.0  0.51698  0.08677  1.00000  1.0000
  C   C153      1.0  0.55929  0.06298  0.00000  1.0000
  C   C154      1.0  0.53491  0.06298  1.00000  1.0000
  C   C155      1.0  0.51164  0.03920  1.00000  1.0000
  C   C156      1.0  0.51113  0.01542  1.00000  1.0000
  C   C157      1.0  0.53551  0.01542  0.00000  1.0000
  C   C158      1.0  0.55878  0.03920  0.00000  1.0000
  H   H75       1.0  0.49320  0.03920  1.00000  1.0000
  H   H76       1.0  0.57722  0.03920  0.00000  1.0000
  C   C159      1.0  0.01143  0.53950  0.00000  1.0000
  C   C160      1.0  0.01143  0.51512  0.00000  1.0000
  C   C161      1.0  0.03521  0.51563  0.00000  1.0000
  C   C162      1.0  0.03521  0.56277  0.00000  1.0000
  H   H77       1.0  0.03521  0.49719  0.00000  1.0000
  H   H78       1.0  0.03521  0.58121  0.00000  1.0000
